135405876
  -OEChem-08262509543D

 51 53  0     1  0  0  0  0  0999 V2000
   -7.3788    2.7803   -1.1078 O   0  0  0  0  0  0  0  0  0  0  0  0
   -4.3328    1.0878    2.2654 O   0  0  0  0  0  0  0  0  0  0  0  0
   -5.9135    1.6063   -2.3826 O   0  0  0  0  0  0  0  0  0  0  0  0
   -7.5801   -3.3887   -1.5294 O   0  0  0  0  0  0  0  0  0  0  0  0
   -8.4687   -2.5711    0.3912 O   0  0  0  0  0  0  0  0  0  0  0  0
    6.4928    2.4244   -0.9832 O   0  0  0  0  0  0  0  0  0  0  0  0
   -4.6768    0.8233   -0.0129 N   0  0  0  0  0  0  0  0  0  0  0  0
    1.6298   -0.2600    0.4518 N   0  0  0  0  0  0  0  0  0  0  0  0
    4.7714    0.7307    0.2675 N   0  0  0  0  0  0  0  0  0  0  0  0
    5.6540   -1.9065    0.6756 N   0  0  0  0  0  0  0  0  0  0  0  0
    8.0860    0.7513   -1.1716 N   0  0  0  0  0  0  0  0  0  0  0  0
    7.7036   -1.4266   -0.3549 N   0  0  0  0  0  0  0  0  0  0  0  0
    9.7367   -0.8914   -1.3951 N   0  0  0  0  0  0  0  0  0  0  0  0
   -6.0897    1.1067   -0.0054 C   0  0  2  0  0  0  0  0  0  0  0  0
   -6.9489   -0.1414    0.2297 C   0  0  0  0  0  0  0  0  0  0  0  0
   -6.8584   -1.2283   -0.8490 C   0  0  0  0  0  0  0  0  0  0  0  0
   -3.9058    0.8381    1.1413 C   0  0  0  0  0  0  0  0  0  0  0  0
   -2.4594    0.5505    0.9615 C   0  0  0  0  0  0  0  0  0  0  0  0
   -6.4163    1.8387   -1.2909 C   0  0  0  0  0  0  0  0  0  0  0  0
    0.2569    0.0128    0.6233 C   0  0  0  0  0  0  0  0  0  0  0  0
    2.6371    0.2350    1.3385 C   0  0  0  0  0  0  0  0  0  0  0  0
   -1.5288    1.0656    1.8641 C   0  0  0  0  0  0  0  0  0  0  0  0
   -2.0317   -0.2336   -0.1099 C   0  0  0  0  0  0  0  0  0  0  0  0
   -0.1706    0.7968    1.6950 C   0  0  0  0  0  0  0  0  0  0  0  0
   -0.6736   -0.5023   -0.2790 C   0  0  0  0  0  0  0  0  0  0  0  0
   -7.7337   -2.4324   -0.5765 C   0  0  0  0  0  0  0  0  0  0  0  0
    4.0026   -0.1920    0.8761 C   0  0  0  0  0  0  0  0  0  0  0  0
    5.9849    0.2994   -0.1279 C   0  0  0  0  0  0  0  0  0  0  0  0
    4.4354   -1.4855    1.0765 C   0  0  0  0  0  0  0  0  0  0  0  0
    6.4360   -0.9929    0.0639 C   0  0  0  0  0  0  0  0  0  0  0  0
    6.8574    1.2705   -0.7956 C   0  0  0  0  0  0  0  0  0  0  0  0
    8.4830   -0.5652   -0.9498 C   0  0  0  0  0  0  0  0  0  0  0  0
   -6.2704    1.8067    0.8207 H   0  0  0  0  0  0  0  0  0  0  0  0
   -6.6809   -0.5846    1.1979 H   0  0  0  0  0  0  0  0  0  0  0  0
   -7.9985    0.1693    0.3170 H   0  0  0  0  0  0  0  0  0  0  0  0
   -5.8238   -1.5803   -0.9270 H   0  0  0  0  0  0  0  0  0  0  0  0
   -7.1652   -0.8173   -1.8167 H   0  0  0  0  0  0  0  0  0  0  0  0
   -4.2466    0.6507   -0.9153 H   0  0  0  0  0  0  0  0  0  0  0  0
    2.4836   -0.1330    2.3608 H   0  0  0  0  0  0  0  0  0  0  0  0
    2.6146    1.3314    1.3741 H   0  0  0  0  0  0  0  0  0  0  0  0
   -1.8423    1.6821    2.7025 H   0  0  0  0  0  0  0  0  0  0  0  0
   -2.7242   -0.6816   -0.8163 H   0  0  0  0  0  0  0  0  0  0  0  0
    1.8905   -0.8314   -0.3449 H   0  0  0  0  0  0  0  0  0  0  0  0
    0.5194    1.2171    2.4204 H   0  0  0  0  0  0  0  0  0  0  0  0
   -0.3535   -1.1207   -1.1139 H   0  0  0  0  0  0  0  0  0  0  0  0
    3.8224   -2.2336    1.5658 H   0  0  0  0  0  0  0  0  0  0  0  0
   -7.6021    3.2417   -1.9441 H   0  0  0  0  0  0  0  0  0  0  0  0
    8.7390    1.3727   -1.6400 H   0  0  0  0  0  0  0  0  0  0  0  0
   -8.1321   -4.1787   -1.3466 H   0  0  0  0  0  0  0  0  0  0  0  0
   10.1091   -1.8273   -1.2765 H   0  0  0  0  0  0  0  0  0  0  0  0
   10.3288   -0.2089   -1.8556 H   0  0  0  0  0  0  0  0  0  0  0  0
  1 19  1  0  0  0  0
  1 47  1  0  0  0  0
  2 17  2  0  0  0  0
  3 19  2  0  0  0  0
  4 26  1  0  0  0  0
  4 49  1  0  0  0  0
  5 26  2  0  0  0  0
  6 31  2  0  0  0  0
  7 14  1  0  0  0  0
  7 17  1  0  0  0  0
  7 38  1  0  0  0  0
  8 20  1  0  0  0  0
  8 21  1  0  0  0  0
  8 43  1  0  0  0  0
  9 27  1  0  0  0  0
  9 28  2  0  0  0  0
 10 29  1  0  0  0  0
 10 30  2  0  0  0  0
 11 31  1  0  0  0  0
 11 32  1  0  0  0  0
 11 48  1  0  0  0  0
 12 30  1  0  0  0  0
 12 32  2  0  0  0  0
 13 32  1  0  0  0  0
 13 50  1  0  0  0  0
 13 51  1  0  0  0  0
 14 15  1  0  0  0  0
 14 19  1  0  0  0  0
 14 33  1  0  0  0  0
 15 16  1  0  0  0  0
 15 34  1  0  0  0  0
 15 35  1  0  0  0  0
 16 26  1  0  0  0  0
 16 36  1  0  0  0  0
 16 37  1  0  0  0  0
 17 18  1  0  0  0  0
 18 22  2  0  0  0  0
 18 23  1  0  0  0  0
 20 24  2  0  0  0  0
 20 25  1  0  0  0  0
 21 27  1  0  0  0  0
 21 39  1  0  0  0  0
 21 40  1  0  0  0  0
 22 24  1  0  0  0  0
 22 41  1  0  0  0  0
 23 25  2  0  0  0  0
 23 42  1  0  0  0  0
 24 44  1  0  0  0  0
 25 45  1  0  0  0  0
 27 29  2  0  0  0  0
 28 30  1  0  0  0  0
 28 31  1  0  0  0  0
 29 46  1  0  0  0  0
M  END
> <PUBCHEM_COMPOUND_CID>
135405876

> <PUBCHEM_CONFORMER_RMSD>
1

> <PUBCHEM_CONFORMER_DIVERSEORDER>
1
8
21
60
51
6
59
29
38
49
36
24
13
45
12
22
35
74
42
27
71
28
10
75
18
66
56
26
76
16
20
55
17
40
72
7
64
19
37
57
31
52
50
46
15
44
47
43
34
73
58
23
41
5
63
67
39
32
69
61
77
33
11
25
70
3
54
68
14
9
30
62
53
65
2
4
48

> <PUBCHEM_MMFF94_PARTIAL_CHARGES>
43
1 -0.65
10 -0.62
11 -0.49
12 -0.63
13 -0.85
14 0.36
16 0.06
17 0.54
18 0.09
19 0.66
2 -0.57
20 0.1
21 0.51
22 -0.15
23 -0.15
24 -0.15
25 -0.15
26 0.66
27 0.17
28 0.4
29 0.16
3 -0.57
30 0.49
31 0.54
32 0.56
38 0.37
4 -0.65
41 0.15
42 0.15
43 0.4
44 0.15
45 0.15
46 0.15
47 0.5
48 0.37
49 0.5
5 -0.57
50 0.4
51 0.4
6 -0.57
7 -0.73
8 -0.87
9 -0.62

> <PUBCHEM_EFFECTIVE_ROTOR_COUNT>
10

> <PUBCHEM_PHARMACOPHORE_FEATURES>
18
1 1 acceptor
1 11 donor
1 13 donor
1 2 acceptor
1 3 acceptor
1 4 acceptor
1 5 acceptor
1 6 acceptor
1 7 donor
1 8 cation
1 8 donor
1 9 acceptor
3 1 3 19 anion
3 10 12 30 cation
3 4 5 26 anion
6 11 12 28 30 31 32 rings
6 18 20 22 23 24 25 rings
6 9 10 27 28 29 30 rings

> <PUBCHEM_HEAVY_ATOM_COUNT>
32

> <PUBCHEM_ATOM_DEF_STEREO_COUNT>
1

> <PUBCHEM_ATOM_UDEF_STEREO_COUNT>
0

> <PUBCHEM_BOND_DEF_STEREO_COUNT>
0

> <PUBCHEM_BOND_UDEF_STEREO_COUNT>
0

> <PUBCHEM_ISOTOPIC_ATOM_COUNT>
0

> <PUBCHEM_COMPONENT_COUNT>
1

> <PUBCHEM_CACTVS_TAUTO_COUNT>
-1

> <PUBCHEM_CONFORMER_ID>
0812213400000001

> <PUBCHEM_MMFF94_ENERGY>
85.7247

> <PUBCHEM_FEATURE_SELFOVERLAP>
91.558

> <PUBCHEM_SHAPE_FINGERPRINT>
10 15 11891334248621635048
10162869 55 18333448764567000778
11135926 11 16272207475438540285
11181472 205 18045220440476376408
11386260 185 18335990826956131836
11456790 92 8934994863717935870
11607047 191 16987742130258426243
11828532 37 17346321540090920344
11991303 11 18272078422696929823
12082328 90 18272933804542060277
12539745 222 18202286932142935187
13627175 4 16988836198812067415
13782708 43 15123498216577575801
15064986 266 18186804704274180507
15152005 1 17696743730264841167
15183329 4 17418086599010171588
15461852 350 18407762538541308047
1577012 14 17313096420134046009
16989713 51 18200582710125545359
17093844 174 8502654818897441169
1754908 1 12391506473749144510
1754911 235 18113336405481745021
1818759 1 16988850479715287702
18335252 114 18408609137621982788
20105231 36 17489871566136918847
21033648 29 17022903489226585452
21150785 3 18408323302108462321
21267235 1 17561083617982940643
21781051 124 17489592302757038294
21792961 116 17988922259243853093
21867018 265 18335420201452559879
21927370 108 16559040393643773691
23576562 1 17604999293686406613
24771293 8 16081088160236403190
2747138 104 16917065568597605379
3383291 50 16056875836187925351
4107672 100 18410004426129623901
4169191 19 15140959539585170549
444769 64 16272205306564425399
504579 68 18342740706830591168
54039377 194 18201439229583277295
5758199 1 15430039824871169089
636775 8 17988929989130373431

> <PUBCHEM_SHAPE_MULTIPOLES>
588.46
32.99
2.4
1.67
15.94
1.07
-0.02
9.85
16.85
-5.5
0.93
-1.17
-0.61
-0.81

> <PUBCHEM_SHAPE_SELFOVERLAP>
1260.998

> <PUBCHEM_SHAPE_VOLUME>
320.4

> <PUBCHEM_COORDINATE_TYPE>
2
5
10

$$$$
